networks/opendss/CKT_589_03838.dss
! OpenDSS script generated from multiconductor network
Clear

New Circuit.mc_network basekv=12.0 pu=1.000000 angle=0.00 frequency=60.0 phases=3 Mvasc3=143993 Mvasc1=47997.6
~ bus1=-8888882159131.1.2.3

! Line codes
New LineCode.UNK_UNK_3PH_12KV_3 nphases=3 units=km Rmatrix=[ 0.001834 | 0 0.001834 | 0 0 0.001834 ] Xmatrix=[ 0.000561 | 0 0.000561 | 0 0 0.000561 ] Cmatrix=[ 0 | 0 0 | 0 0 0 ]
New LineCode.1000_CLP_3PH_12KV_3 nphases=3 units=km Rmatrix=[ 0.012321 | 0 0.012321 | 0 0 0.012321 ] Xmatrix=[ 0.01865 | 0 0.01865 | 0 0 0.01865 ] Cmatrix=[ 0 | 0 0 | 0 0 0 ]
New LineCode.1/0_JCN_2PH_12KV_2 nphases=2 units=km Rmatrix=[ 0.001127 | 0 0.001127 ] Xmatrix=[ 0.000344 | 0 0.000344 ] Cmatrix=[ 0 | 0 0 ]
New LineCode.653_ACSR_3PH_653_ACSR_N_12KV_4 nphases=4 units=km Rmatrix=[ 0.005228 | 0 0.005228 | 0 0 0.005228 | 0 0 0 0.005228 ] Xmatrix=[ 0.017775 | 0 0.017775 | 0 0 0.017775 | 0 0 0 0.017775 ] Cmatrix=[ 0 | 0 0 | 0 0 0 | 0 0 0 0 ]
New LineCode.750_CLP_3PH_12KV_3 nphases=3 units=km Rmatrix=[ 0.00093 | 0 0.00093 | 0 0 0.00093 ] Xmatrix=[ 0.001142 | 0 0.001142 | 0 0 0.001142 ] Cmatrix=[ 0 | 0 0 | 0 0 0 ]
New LineCode.350_CLP_3PH_12KV_3 nphases=3 units=km Rmatrix=[ 0.014246 | 0 0.014246 | 0 0 0.014246 ] Xmatrix=[ 0.010824 | 0 0.010824 | 0 0 0.010824 ] Cmatrix=[ 0 | 0 0 | 0 0 0 ]
New LineCode.1/0_CLP_3PH_12KV_3 nphases=3 units=km Rmatrix=[ 0.002166 | 0 0.002166 | 0 0 0.002166 ] Xmatrix=[ 0.000662 | 0 0.000662 | 0 0 0.000662 ] Cmatrix=[ 0 | 0 0 | 0 0 0 ]
New LineCode.1/0_JCN_3PH_12KV_3 nphases=3 units=km Rmatrix=[ 0.088455 | 0 0.088455 | 0 0 0.088455 ] Xmatrix=[ 0.027036 | 0 0.027036 | 0 0 0.027036 ] Cmatrix=[ 0 | 0 0 | 0 0 0 ]
New LineCode.1/0_CLP_2PH_12KV_2 nphases=2 units=km Rmatrix=[ 0.002679 | 0 0.002679 ] Xmatrix=[ 0.000819 | 0 0.000819 ] Cmatrix=[ 0 | 0 0 ]
New LineCode.2_JCN_3PH_12KV_3 nphases=3 units=km Rmatrix=[ 0.002203 | 0 0.002203 | 0 0 0.002203 ] Xmatrix=[ 0.000464 | 0 0.000464 | 0 0 0.000464 ] Cmatrix=[ 0 | 0 0 | 0 0 0 ]
New LineCode.1000_JCN_3PH_12KV_3 nphases=3 units=km Rmatrix=[ 0.033986 | 0 0.033986 | 0 0 0.033986 ] Xmatrix=[ 0.051445 | 0 0.051445 | 0 0 0.051445 ] Cmatrix=[ 0 | 0 0 | 0 0 0 ]
New LineCode.2_CLP_3PH_12KV_3 nphases=3 units=km Rmatrix=[ 0.003993 | 0 0.003993 | 0 0 0.003993 ] Xmatrix=[ 0.000842 | 0 0.000842 | 0 0 0.000842 ] Cmatrix=[ 0 | 0 0 | 0 0 0 ]
New LineCode.2_CLP_2PH_12KV_2 nphases=2 units=km Rmatrix=[ 0.156821 | 0 0.156821 ] Xmatrix=[ 0.033055 | 0 0.033055 ] Cmatrix=[ 0 | 0 0 ]
New LineCode.1/0_JCN_1PH_12KV_1 nphases=1 units=km Rmatrix=[ 0.010843 ] Xmatrix=[ 0.003314 ] Cmatrix=[ 0 ]
New LineCode.2_CLP_1PH_12KV_1 nphases=1 units=km Rmatrix=[ 0.182565 ] Xmatrix=[ 0.038481 ] Cmatrix=[ 0 ]
New LineCode.1/0_CLP_1PH_12KV_1 nphases=1 units=km Rmatrix=[ 0.083607 ] Xmatrix=[ 0.025554 ] Cmatrix=[ 0 ]
New LineCode.336_ACSR_3PH_336_ACSR_N_12KV_4 nphases=4 units=km Rmatrix=[ 0.059901 | 0 0.059901 | 0 0 0.059901 | 0 0 0 0.059901 ] Xmatrix=[ 0.119456 | 0 0.119456 | 0 0 0.119456 | 0 0 0 0.119456 ] Cmatrix=[ 0 | 0 0 | 0 0 0 | 0 0 0 0 ]
New LineCode.2_JCN_2PH_12KV_2 nphases=2 units=km Rmatrix=[ 0.001163 | 0 0.001163 ] Xmatrix=[ 0.000245 | 0 0.000245 ] Cmatrix=[ 0 | 0 0 ]
New LineCode.1000_CLP_1PH_12KV_1 nphases=1 units=km Rmatrix=[ 0.000122 ] Xmatrix=[ 0.000184 ] Cmatrix=[ 0 ]
New LineCode.350_CLP_2PH_12KV_2 nphases=2 units=km Rmatrix=[ 0.017224 | 0 0.017224 ] Xmatrix=[ 0.013087 | 0 0.013087 ] Cmatrix=[ 0 | 0 0 ]
New LineCode.2_CIC_1PH_12KV_1 nphases=1 units=km Rmatrix=[ 0.086561 ] Xmatrix=[ 0.018245 ] Cmatrix=[ 0 ]
New LineCode.350_CLP_1PH_12KV_1 nphases=1 units=km Rmatrix=[ 0.000564 ] Xmatrix=[ 0.000429 ] Cmatrix=[ 0 ]
New LineCode.4_ACSR_2PH_12KV_2 nphases=2 units=km Rmatrix=[ 0.157532 | 0 0.157532 ] Xmatrix=[ 0.057805 | 0 0.057805 ] Cmatrix=[ 0 | 0 0 ]
New LineCode.1/0_ATW_2PH_12KV_2 nphases=2 units=km Rmatrix=[ 1e-05 | 0 1e-05 ] Xmatrix=[ 1e-05 | 0 1e-05 ] Cmatrix=[ 0 | 0 0 ]
New LineCode.336_ATW_3PH_336_ATW_N_12KV_4 nphases=4 units=km Rmatrix=[ 1e-05 | 0 1e-05 | 0 0 1e-05 | 0 0 0 1e-05 ] Xmatrix=[ 1e-05 | 0 1e-05 | 0 0 1e-05 | 0 0 0 1e-05 ] Cmatrix=[ 0 | 0 0 | 0 0 0 | 0 0 0 0 ]
New LineCode.1/0_ATW_3PH_12KV_3 nphases=3 units=km Rmatrix=[ 1e-05 | 0 1e-05 | 0 0 1e-05 ] Xmatrix=[ 1e-05 | 0 1e-05 | 0 0 1e-05 ] Cmatrix=[ 0 | 0 0 | 0 0 0 ]
New LineCode.336_ATW_3PH_12KV_3 nphases=3 units=km Rmatrix=[ 1e-05 | 0 1e-05 | 0 0 1e-05 ] Xmatrix=[ 1e-05 | 0 1e-05 | 0 0 1e-05 ] Cmatrix=[ 0 | 0 0 | 0 0 0 ]

! Lines
New Line.14841104$FC5275-1 phases=3 Bus1=14841107.1.2.3 Bus2=30552003.1.2.3 LineCode=UNK_UNK_3PH_12KV_3 Length=1e-05 units=km
New Line.14841132$FC5197-1 phases=3 Bus1=14841135.1.2.3 Bus2=30553844.1.2.3 LineCode=UNK_UNK_3PH_12KV_3 Length=1e-05 units=km
New Line.ND108524892$GS5567-3 phases=3 Bus1=108524892.1.2.3 Bus2=236268913.1.2.3 LineCode=1000_CLP_3PH_12KV_3 Length=0.024101 units=km
New Line.ND94771447$ND108524892 phases=3 Bus1=108524892.1.2.3 Bus2=94771447.1.2.3 LineCode=1000_CLP_3PH_12KV_3 Length=0.260354 units=km
New Line.ND30648609$ND94771447 phases=3 Bus1=94771447.1.2.3 Bus2=30648609.1.2.3 LineCode=1000_CLP_3PH_12KV_3 Length=0.321806 units=km
New Line.ND94771447$GS5854-1 phases=3 Bus1=94771447.1.2.3 Bus2=94109765.1.2.3 LineCode=1000_CLP_3PH_12KV_3 Length=0.098314 units=km
New Line.GS5466-1$ND30648609 phases=3 Bus1=30648609.1.2.3 Bus2=30509395.1.2.3 LineCode=1000_CLP_3PH_12KV_3 Length=0.511373 units=km
New Line.4401967E$GS5466-3 phases=3 Bus1=30509403.1.2.3 Bus2=30509550.1.2.3 LineCode=1000_CLP_3PH_12KV_3 Length=0.174908 units=km
New Line.GS5466-4$ND136043442 phases=3 Bus1=30509411.1.2.3 Bus2=136043442.1.2.3 LineCode=1000_CLP_3PH_12KV_3 Length=0.188753 units=km
New Line.ND136043442$136043488 phases=2 Bus1=136043442.2.3 Bus2=136043490.2.3 LineCode=1/0_JCN_2PH_12KV_2 Length=0.023059 units=km
New Line.ND175487554$4401967E phases=4 Bus1=30509549.0.1.2.3 Bus2=175487554.0.1.2.3 LineCode=653_ACSR_3PH_653_ACSR_N_12KV_4 Length=0.051171 units=km
New Line.ND106753265$ND175487554 phases=4 Bus1=175487554.0.1.2.3 Bus2=106753265.0.1.2.3 LineCode=653_ACSR_3PH_653_ACSR_N_12KV_4 Length=0.004579 units=km
New Line.P5543636-1$136043488 phases=2 Bus1=136043491.2.3 Bus2=136043404.2.3 LineCode=1/0_JCN_2PH_12KV_2 Length=0.001605 units=km
New Line.PME2673-1$4401979E phases=3 Bus1=30610481.1.2.3 Bus2=30610367.1.2.3 LineCode=750_CLP_3PH_12KV_3 Length=0.083656 units=km
New Line.30611222$4401984E phases=3 Bus1=30589103.1.2.3 Bus2=30611224.1.2.3 LineCode=350_CLP_3PH_12KV_3 Length=0.094079 units=km
New Line.PME2673-4$ND148557729 phases=3 Bus1=30610349.1.2.3 Bus2=148557729.1.2.3 LineCode=1/0_CLP_3PH_12KV_3 Length=0.009337 units=km
New Line.ND148557729$ND148557596 phases=3 Bus1=148557729.1.2.3 Bus2=148557596.1.2.3 LineCode=1/0_CLP_3PH_12KV_3 Length=0.006311 units=km
New Line.ND148557729$148557744 phases=3 Bus1=148557729.1.2.3 Bus2=148557746.1.2.3 LineCode=1/0_JCN_3PH_12KV_3 Length=0.082698 units=km
New Line.PME2673-2$PME7926-1 phases=3 Bus1=30610358.1.2.3 Bus2=206965349.1.2.3 LineCode=350_CLP_3PH_12KV_3 Length=0.223384 units=km
New Line.30611222$30611212 phases=3 Bus1=30611225.1.2.3 Bus2=30611215.1.2.3 LineCode=350_CLP_3PH_12KV_3 Length=0.014652 units=km
New Line.PME2673-3$ND98909179 phases=3 Bus1=30610340.1.2.3 Bus2=98909179.1.2.3 LineCode=350_CLP_3PH_12KV_3 Length=0.284864 units=km
New Line.ND98909179$172112151 phases=3 Bus1=98909179.1.2.3 Bus2=172112153.1.2.3 LineCode=1/0_JCN_3PH_12KV_3 Length=0.026507 units=km
New Line.ND148557596$ND196849951 phases=3 Bus1=148557596.1.2.3 Bus2=196849951.1.2.3 LineCode=1/0_CLP_3PH_12KV_3 Length=0.138604 units=km
New Line.P5427125T1$ND148557596 phases=2 Bus1=148557596.2.3 Bus2=30611373.2.3 LineCode=1/0_CLP_2PH_12KV_2 Length=0.023429 units=km
New Line.ND98909179$S5427129 phases=3 Bus1=98909179.1.2.3 Bus2=30611555.1.2.3 LineCode=350_CLP_3PH_12KV_3 Length=0.002203 units=km
New Line.ND98909179$GS6042-1 phases=3 Bus1=98909179.1.2.3 Bus2=98908725.1.2.3 LineCode=350_CLP_3PH_12KV_3 Length=0.20621 units=km
New Line.PME7050-1$148557744 phases=3 Bus1=148557747.1.2.3 Bus2=148557636.1.2.3 LineCode=1/0_JCN_3PH_12KV_3 Length=0.001973 units=km
New Line.193673697$ND196849951 phases=3 Bus1=196849951.1.2.3 Bus2=193673699.1.2.3 LineCode=1/0_JCN_3PH_12KV_3 Length=0.125512 units=km
New Line.30611212$30611202 phases=3 Bus1=30611214.1.2.3 Bus2=30611204.1.2.3 LineCode=350_CLP_3PH_12KV_3 Length=0.064174 units=km
New Line.P5542248-1$172112151 phases=3 Bus1=172112154.1.2.3 Bus2=172112116.1.2.3 LineCode=1/0_JCN_3PH_12KV_3 Length=0.026507 units=km
New Line.PME7926-4$ND206965601 phases=3 Bus1=206965331.1.2.3 Bus2=206965601.1.2.3 LineCode=2_JCN_3PH_12KV_3 Length=0.021277 units=km
New Line.4401988E$ND232253909 phases=3 Bus1=201462711.1.2.3 Bus2=232253909.1.2.3 LineCode=1000_JCN_3PH_12KV_3 Length=0.015129 units=km
New Line.30611202$P5466522-A phases=3 Bus1=30611205.1.2.3 Bus2=135420300.1.2.3 LineCode=350_CLP_3PH_12KV_3 Length=0.003156 units=km
New Line.PME7926-2$ND148558030 phases=3 Bus1=206965340.1.2.3 Bus2=148558030.1.2.3 LineCode=350_CLP_3PH_12KV_3 Length=0.268807 units=km
New Line.P5427124$ND206965601 phases=3 Bus1=206965601.1.2.3 Bus2=157746603.1.2.3 LineCode=1/0_CLP_3PH_12KV_3 Length=0.006316 units=km
New Line.193673697$P5635163-1 phases=3 Bus1=193673700.1.2.3 Bus2=193673642.1.2.3 LineCode=1/0_JCN_3PH_12KV_3 Length=0.00234 units=km
New Line.ND232253909$PME7659-1 phases=3 Bus1=232253909.1.2.3 Bus2=201462779.1.2.3 LineCode=1000_JCN_3PH_12KV_3 Length=0.109312 units=km
New Line.206965655$ND206965601 phases=3 Bus1=206965601.1.2.3 Bus2=206965657.1.2.3 LineCode=1/0_JCN_3PH_12KV_3 Length=0.016874 units=km
New Line.ND232253909$GS9391-2 phases=3 Bus1=232253909.1.2.3 Bus2=232253989.1.2.3 LineCode=1000_JCN_3PH_12KV_3 Length=0.175964 units=km
New Line.PME2714-1$PME7926-3 phases=3 Bus1=206965322.1.2.3 Bus2=30590160.1.2.3 LineCode=1/0_CLP_3PH_12KV_3 Length=0.0732 units=km
New Line.GS6042-2$ND172112187 phases=3 Bus1=98908717.1.2.3 Bus2=172112187.1.2.3 LineCode=1/0_CLP_3PH_12KV_3 Length=0.12007 units=km
New Line.P5362841-1$ND148558030 phases=3 Bus1=148558030.1.2.3 Bus2=30610261.1.2.3 LineCode=350_CLP_3PH_12KV_3 Length=0.051985 units=km
New Line.S5427121$ND148558030 phases=3 Bus1=148558030.1.2.3 Bus2=30611329.1.2.3 LineCode=350_CLP_3PH_12KV_3 Length=0.009109 units=km
New Line.PME7050-2$148557788 phases=3 Bus1=148557627.1.2.3 Bus2=148557790.1.2.3 LineCode=1/0_JCN_3PH_12KV_3 Length=0.0047 units=km
New Line.ND172112187$ND172112220 phases=3 Bus1=172112187.1.2.3 Bus2=172112220.1.2.3 LineCode=1/0_CLP_3PH_12KV_3 Length=0.071768 units=km
New Line.ND172112249$GS6042-3 phases=3 Bus1=98908733.1.2.3 Bus2=172112249.1.2.3 LineCode=1/0_CLP_3PH_12KV_3 Length=0.03385 units=km
New Line.P5630500-1$206965655 phases=3 Bus1=206965658.1.2.3 Bus2=206965517.1.2.3 LineCode=1/0_JCN_3PH_12KV_3 Length=0.001465 units=km
New Line.296946019$S5427121 phases=3 Bus1=30611329.1.2.3 Bus2=296946021.1.2.3 LineCode=1/0_CLP_3PH_12KV_3 Length=0.176604 units=km
New Line.PME2714-1$ND30590344 phases=3 Bus1=30590161.1.2.3 Bus2=30590322.1.2.3 LineCode=1/0_CLP_3PH_12KV_3 Length=0.022903 units=km
New Line.ND172112187$98909647 phases=3 Bus1=172112187.1.2.3 Bus2=98909649.1.2.3 LineCode=2_CLP_3PH_12KV_3 Length=0.019156 units=km
New Line.98909672$ND172112187 phases=2 Bus1=172112187.2.3 Bus2=98909674.2.3 LineCode=2_CLP_2PH_12KV_2 Length=0.013529 units=km
New Line.PME7659-4$0207504 phases=3 Bus1=201462761.1.2.3 Bus2=201463019.1.2.3 LineCode=1/0_JCN_3PH_12KV_3 Length=0.016271 units=km
New Line.GS9391-3$GS6042-4 phases=3 Bus1=98908741.1.2.3 Bus2=232253998.1.2.3 LineCode=1000_JCN_3PH_12KV_3 Length=0.300875 units=km
New Line.P5466522-B$75205237 phases=3 Bus1=135420318.1.2.3 Bus2=75205240.1.2.3 LineCode=2_CLP_3PH_12KV_3 Length=0.003548 units=km
New Line.ND172112220$ND98909458 phases=3 Bus1=172112220.1.2.3 Bus2=98909458.1.2.3 LineCode=1/0_CLP_3PH_12KV_3 Length=0.128759 units=km
New Line.98909472$ND172112249 phases=3 Bus1=172112249.1.2.3 Bus2=98909474.1.2.3 LineCode=1/0_CLP_3PH_12KV_3 Length=0.149737 units=km
New Line.ND172112249$98909522 phases=3 Bus1=172112249.1.2.3 Bus2=98909524.1.2.3 LineCode=2_CLP_3PH_12KV_3 Length=0.074031 units=km
New Line.ND172112220$98909622 phases=3 Bus1=172112220.1.2.3 Bus2=98909624.1.2.3 LineCode=2_CLP_3PH_12KV_3 Length=0.028214 units=km
New Line.ND98909458$108011992 phases=3 Bus1=98909458.1.2.3 Bus2=108011994.1.2.3 LineCode=1/0_CLP_3PH_12KV_3 Length=0.086957 units=km
New Line.148557788$ND148557715 phases=3 Bus1=148557791.1.2.3 Bus2=148557697.1.2.3 LineCode=1/0_JCN_3PH_12KV_3 Length=0.004376 units=km
New Line.PME2870-1$296946019 phases=3 Bus1=296946022.1.2.3 Bus2=148557854.1.2.3 LineCode=1/0_CLP_3PH_12KV_3 Length=0.002965 units=km
New Line.PME7659-3$ND204939091 phases=3 Bus1=201462752.1.2.3 Bus2=204939091.1.2.3 LineCode=1/0_JCN_3PH_12KV_3 Length=0.016393 units=km
New Line.232255164$GS9391-1 phases=3 Bus1=232253980.1.2.3 Bus2=232255166.1.2.3 LineCode=1/0_CLP_3PH_12KV_3 Length=0.155427 units=km
New Line.ND94213783$PME7659-2 phases=3 Bus1=201462770.1.2.3 Bus2=94213783.1.2.3 LineCode=1000_JCN_3PH_12KV_3 Length=0.240291 units=km
New Line.98909647$P5550371-1 phases=3 Bus1=98909650.1.2.3 Bus2=98908951.1.2.3 LineCode=2_CLP_3PH_12KV_3 Length=0.001766 units=km
New Line.P5550370-1$98909672 phases=2 Bus1=98909675.2.3 Bus2=98909353.2.3 LineCode=2_CLP_2PH_12KV_2 Length=0.002746 units=km
New Line.ND98909458$98909597 phases=3 Bus1=98909458.1.2.3 Bus2=98909599.1.2.3 LineCode=2_CLP_3PH_12KV_3 Length=0.056717 units=km
New Line.ND135420469$75205237 phases=3 Bus1=75205239.1.2.3 Bus2=135420469.1.2.3 LineCode=2_CLP_3PH_12KV_3 Length=0.038932 units=km
New Line.201463042$ND204939091 phases=1 Bus1=204939091.1 Bus2=201463044.1 LineCode=1/0_JCN_1PH_12KV_1 Length=0.044706 units=km
New Line.ND204939091$206982120 phases=3 Bus1=204939091.1.2.3 Bus2=206982122.1.2.3 LineCode=1/0_JCN_3PH_12KV_3 Length=0.108993 units=km
New Line.GS9391-4$232254793 phases=2 Bus1=232254007.2.3 Bus2=232254795.2.3 LineCode=1/0_JCN_2PH_12KV_2 Length=0.115429 units=km
New Line.PME3042-1$ND94213783 phases=3 Bus1=94213783.1.2.3 Bus2=30588905.1.2.3 LineCode=750_CLP_3PH_12KV_3 Length=0.290261 units=km
New Line.ND94213783$94213988 phases=3 Bus1=94213783.1.2.3 Bus2=94213990.1.2.3 LineCode=350_CLP_3PH_12KV_3 Length=0.114238 units=km
New Line.98909622$P5550373-1 phases=3 Bus1=98909625.1.2.3 Bus2=98909092.1.2.3 LineCode=2_CLP_3PH_12KV_3 Length=0.001564 units=km
New Line.98909522$P5550366-A phases=3 Bus1=98909525.1.2.3 Bus2=98909741.1.2.3 LineCode=2_CLP_3PH_12KV_3 Length=0.003584 units=km
New Line.P5550364-A$98909472 phases=3 Bus1=98909475.1.2.3 Bus2=98909858.1.2.3 LineCode=1/0_CLP_3PH_12KV_3 Length=0.003229 units=km
New Line.108011992$ND108011982 phases=3 Bus1=108011995.1.2.3 Bus2=108011982.1.2.3 LineCode=1/0_CLP_3PH_12KV_3 Length=0.007634 units=km
New Line.135420490$ND135420469 phases=3 Bus1=135420469.1.2.3 Bus2=135420492.1.2.3 LineCode=2_JCN_3PH_12KV_3 Length=0.081179 units=km
New Line.P5734002-A$232255164 phases=3 Bus1=232255167.1.2.3 Bus2=232254205.1.2.3 LineCode=1/0_CLP_3PH_12KV_3 Length=0.002752 units=km
New Line.GS9391-5$232254859 phases=3 Bus1=232254016.1.2.3 Bus2=232254861.1.2.3 LineCode=1/0_CLP_3PH_12KV_3 Length=0.173354 units=km
New Line.75205264$ND135420469 phases=3 Bus1=135420469.1.2.3 Bus2=75205266.1.2.3 LineCode=2_CLP_3PH_12KV_3 Length=0.055405 units=km
New Line.98909597$P5550375-1 phases=3 Bus1=98909600.1.2.3 Bus2=98909042.1.2.3 LineCode=2_CLP_3PH_12KV_3 Length=0.005271 units=km
New Line.108012019$ND108011982 phases=3 Bus1=108011982.1.2.3 Bus2=108012022.1.2.3 LineCode=2_CLP_3PH_12KV_3 Length=0.28282 units=km
New Line.201463042$P5650328-2 phases=1 Bus1=201463045.1 Bus2=201462932.1 LineCode=1/0_JCN_1PH_12KV_1 Length=0.000649 units=km
New Line.206982120$ND204939576 phases=3 Bus1=206982123.1.2.3 Bus2=204939576.1.2.3 LineCode=1/0_JCN_3PH_12KV_3 Length=0.009042 units=km
New Line.232254793$P5734001-1 phases=2 Bus1=232254796.2.3 Bus2=232254695.2.3 LineCode=1/0_JCN_2PH_12KV_2 Length=0.002981 units=km
New Line.94213988$ND94213777 phases=3 Bus1=94213991.1.2.3 Bus2=94213777.1.2.3 LineCode=350_CLP_3PH_12KV_3 Length=0.014819 units=km
New Line.P5542710-1$135420490 phases=3 Bus1=135420493.1.2.3 Bus2=135420425.1.2.3 LineCode=2_JCN_3PH_12KV_3 Length=0.001964 units=km
New Line.PME3042-4$ND153219024 phases=3 Bus1=30588887.1.2.3 Bus2=153219024.1.2.3 LineCode=750_CLP_3PH_12KV_3 Length=0.364729 units=km
New Line.ND204939576$206982093 phases=2 Bus1=204939576.2.3 Bus2=206982096.2.3 LineCode=1/0_JCN_2PH_12KV_2 Length=0.018006 units=km
New Line.ND204939576$ND206982272 phases=1 Bus1=204939576.1 Bus2=206982272.1 LineCode=1/0_JCN_1PH_12KV_1 Length=0.005462 units=km
New Line.232254859$P5734007-A phases=3 Bus1=232254862.1.2.3 Bus2=232254605.1.2.3 LineCode=1/0_CLP_3PH_12KV_3 Length=0.002421 units=km
New Line.296945992$PME2870-2 phases=3 Bus1=148557845.1.2.3 Bus2=296945995.1.2.3 LineCode=1/0_CLP_3PH_12KV_3 Length=0.014871 units=km
New Line.75205264$P5537031-1 phases=3 Bus1=75205267.1.2.3 Bus2=75205188.1.2.3 LineCode=2_CLP_3PH_12KV_3 Length=0.003857 units=km
New Line.ND94213777$94213963 phases=2 Bus1=94213777.2.3 Bus2=94213966.2.3 LineCode=2_CLP_2PH_12KV_2 Length=0.004457 units=km
New Line.ND94213777$94214013 phases=3 Bus1=94213777.1.2.3 Bus2=94214016.1.2.3 LineCode=2_CLP_3PH_12KV_3 Length=0.002776 units=km
New Line.98909247$P5550364-B phases=3 Bus1=98909841.1.2.3 Bus2=98909250.1.2.3 LineCode=1/0_CLP_3PH_12KV_3 Length=0.003085 units=km
New Line.P5550366-B$98909547 phases=3 Bus1=98909759.1.2.3 Bus2=98909550.1.2.3 LineCode=2_CLP_3PH_12KV_3 Length=0.00279 units=km
New Line.108012052$108012019 phases=3 Bus1=108012021.1.2.3 Bus2=108012054.1.2.3 LineCode=2_CLP_3PH_12KV_3 Length=0.093737 units=km
New Line.PME3042-3$ND152328618 phases=3 Bus1=30588878.1.2.3 Bus2=152328618.1.2.3 LineCode=750_CLP_3PH_12KV_3 Length=0.015035 units=km
New Line.ND206982272$206981975 phases=1 Bus1=206982272.1 Bus2=206981978.1 LineCode=1/0_JCN_1PH_12KV_1 Length=0.01795 units=km
New Line.206982240$ND206982272 phases=1 Bus1=206982272.1 Bus2=206982243.1 LineCode=1/0_JCN_1PH_12KV_1 Length=0.006277 units=km
New Line.P5734002-B$232255139 phases=3 Bus1=232254223.1.2.3 Bus2=232255142.1.2.3 LineCode=1/0_CLP_3PH_12KV_3 Length=0.002552 units=km
New Line.GS5843-3$ND153219024 phases=3 Bus1=153219024.1.2.3 Bus2=89822787.1.2.3 LineCode=750_CLP_3PH_12KV_3 Length=0.015673 units=km
New Line.PME5769-4$ND153219024 phases=3 Bus1=153219024.1.2.3 Bus2=90131797.1.2.3 LineCode=2_CLP_3PH_12KV_3 Length=0.104726 units=km
New Line.ND152328618$ND175167358 phases=3 Bus1=152328618.1.2.3 Bus2=175167358.1.2.3 LineCode=2_CLP_3PH_12KV_3 Length=0.253696 units=km
New Line.206982093$206981757 phases=2 Bus1=206982095.2.3 Bus2=206981759.2.3 LineCode=1/0_JCN_2PH_12KV_2 Length=0.093553 units=km
New Line.ND30589684$296945992 phases=3 Bus1=296945994.1.2.3 Bus2=30589662.1.2.3 LineCode=1/0_CLP_3PH_12KV_3 Length=0.03538 units=km
New Line.ND152328618$ND90131688 phases=3 Bus1=152328618.1.2.3 Bus2=90131688.1.2.3 LineCode=750_CLP_3PH_12KV_3 Length=0.046057 units=km
New Line.94213963$94213828 phases=2 Bus1=94213965.2.3 Bus2=94213830.2.3 LineCode=2_CLP_2PH_12KV_2 Length=0.007409 units=km
New Line.94214013$94213853 phases=3 Bus1=94214015.1.2.3 Bus2=94213855.1.2.3 LineCode=2_CLP_3PH_12KV_3 Length=0.088762 units=km
New Line.98909497$98909247 phases=3 Bus1=98909249.1.2.3 Bus2=98909499.1.2.3 LineCode=1/0_CLP_3PH_12KV_3 Length=0.047688 units=km
New Line.98909547$98909572 phases=3 Bus1=98909549.1.2.3 Bus2=98909574.1.2.3 LineCode=2_CLP_3PH_12KV_3 Length=0.057533 units=km
New Line.P5542632-A$108012052 phases=3 Bus1=108012055.1.2.3 Bus2=108011882.1.2.3 LineCode=2_CLP_3PH_12KV_3 Length=0.00328 units=km
New Line.204939150$206982240 phases=1 Bus1=206982242.1 Bus2=204939152.1 LineCode=1/0_JCN_1PH_12KV_1 Length=0.053505 units=km
New Line.204939177$206981975 phases=1 Bus1=206981977.1 Bus2=204939179.1 LineCode=1/0_JCN_1PH_12KV_1 Length=0.015347 units=km
New Line.232254886$P5734007-B phases=3 Bus1=232254623.1.2.3 Bus2=232254889.1.2.3 LineCode=1/0_CLP_3PH_12KV_3 Length=0.003054 units=km
New Line.232255139$232255114 phases=3 Bus1=232255141.1.2.3 Bus2=232255116.1.2.3 LineCode=1/0_CLP_3PH_12KV_3 Length=0.161472 units=km
New Line.ND90131688$30588463 phases=1 Bus1=90131688.1 Bus2=30588465.1 LineCode=2_CLP_1PH_12KV_1 Length=0.091581 units=km
New Line.30607690$ND175167358 phases=1 Bus1=175167358.3 Bus2=30607692.3 LineCode=2_CLP_1PH_12KV_1 Length=0.094192 units=km
New Line.ND175167358$30610855 phases=1 Bus1=175167358.2 Bus2=30610857.2 LineCode=2_CLP_1PH_12KV_1 Length=0.061814 units=km
New Line.ND90131688$ND90131672 phases=3 Bus1=90131688.1.2.3 Bus2=90131672.1.2.3 LineCode=750_CLP_3PH_12KV_3 Length=0.008231 units=km
New Line.206981757$206981784 phases=2 Bus1=206981760.2.3 Bus2=206981787.2.3 LineCode=1/0_JCN_2PH_12KV_2 Length=0.016096 units=km
New Line.ND90131672$30588381 phases=1 Bus1=90131672.1 Bus2=30588383.1 LineCode=2_CLP_1PH_12KV_1 Length=0.116683 units=km
New Line.ND90131672$30611186 phases=2 Bus1=90131672.2.3 Bus2=30611188.2.3 LineCode=2_CLP_2PH_12KV_2 Length=0.378267 units=km
New Line.PME5769-2$90132806 phases=1 Bus1=90131807.2 Bus2=90132809.2 LineCode=2_CLP_1PH_12KV_1 Length=0.001415 units=km
New Line.94213853$P5541596-1 phases=3 Bus1=94213856.1.2.3 Bus2=94213692.1.2.3 LineCode=2_CLP_3PH_12KV_3 Length=0.004587 units=km
New Line.94213828$P5541594-2 phases=2 Bus1=94213831.2.3 Bus2=94213893.2.3 LineCode=2_CLP_2PH_12KV_2 Length=0.002362 units=km
New Line.98909572$P5550367-1 phases=3 Bus1=98909575.1.2.3 Bus2=98908992.1.2.3 LineCode=2_CLP_3PH_12KV_3 Length=0.003028 units=km
New Line.98909497$P5550362-A phases=3 Bus1=98909500.1.2.3 Bus2=98910046.1.2.3 LineCode=1/0_CLP_3PH_12KV_3 Length=0.004121 units=km
New Line.GS5843-2$0206442 phases=3 Bus1=89822779.1.2.3 Bus2=153218989.1.2.3 LineCode=1/0_JCN_3PH_12KV_3 Length=0.011653 units=km
New Line.204939177$P5726638-2 phases=1 Bus1=204939180.1 Bus2=204938967.1 LineCode=1/0_JCN_1PH_12KV_1 Length=0.002914 units=km
New Line.204939150$P5726639-1 phases=1 Bus1=204939153.1 Bus2=204939026.1 LineCode=1/0_JCN_1PH_12KV_1 Length=0.003988 units=km
New Line.232255114$P5734003-A phases=3 Bus1=232255117.1.2.3 Bus2=232254294.1.2.3 LineCode=1/0_CLP_3PH_12KV_3 Length=0.002766 units=km
New Line.232254911$232254886 phases=3 Bus1=232254888.1.2.3 Bus2=232254913.1.2.3 LineCode=1/0_CLP_3PH_12KV_3 Length=0.123006 units=km
New Line.FC5251-1$30610855 phases=1 Bus1=30610858.2 Bus2=30552415.2 LineCode=2_CLP_1PH_12KV_1 Length=0.001856 units=km
New Line.30588463$P5487597-1 phases=1 Bus1=30588466.1 Bus2=30588489.1 LineCode=2_CLP_1PH_12KV_1 Length=0.004688 units=km
New Line.30607690$P5176866-1 phases=1 Bus1=30607693.3 Bus2=30607706.3 LineCode=2_CLP_1PH_12KV_1 Length=0.00185 units=km
New Line.PME5769-1$90132779 phases=1 Bus1=90131825.1 Bus2=90132782.1 LineCode=2_CLP_1PH_12KV_1 Length=0.001092 units=km
New Line.PME5769-3$90132833 phases=1 Bus1=90131816.3 Bus2=90132836.3 LineCode=2_CLP_1PH_12KV_1 Length=0.000949 units=km
New Line.ND153219080$GS5843-1 phases=3 Bus1=89822771.1.2.3 Bus2=153219080.1.2.3 LineCode=750_CLP_3PH_12KV_3 Length=0.040391 units=km
New Line.206981784$206981814 phases=2 Bus1=206981786.2.3 Bus2=206981816.2.3 LineCode=1/0_JCN_2PH_12KV_2 Length=0.101205 units=km
New Line.30588381$P5487596-2 phases=1 Bus1=30588384.1 Bus2=30588406.1 LineCode=2_CLP_1PH_12KV_1 Length=0.006342 units=km
New Line.30611186$ND30647239 phases=2 Bus1=30611189.2.3 Bus2=30647239.2.3 LineCode=2_CLP_2PH_12KV_2 Length=0.012125 units=km
New Line.90132806$90133054 phases=1 Bus1=90132808.2 Bus2=90133056.2 LineCode=2_CLP_1PH_12KV_1 Length=0.581848 units=km
New Line.FC5251-1$14841071 phases=1 Bus1=30552414.2 Bus2=14841074.2 LineCode=2_CLP_1PH_12KV_1 Length=0.000853 units=km
New Line.P5734006-B$232254911 phases=3 Bus1=232254914.1.2.3 Bus2=232254533.1.2.3 LineCode=1/0_CLP_3PH_12KV_3 Length=0.002517 units=km
New Line.ND30647239$30611146 phases=1 Bus1=30647239.2 Bus2=30611149.2 LineCode=2_CLP_1PH_12KV_1 Length=0.01579 units=km
New Line.ND30647239$30611156 phases=1 Bus1=30647239.3 Bus2=30611159.3 LineCode=2_CLP_1PH_12KV_1 Length=0.011176 units=km
New Line.ND30647239$30611166 phases=1 Bus1=30647239.3 Bus2=30611169.3 LineCode=2_CLP_1PH_12KV_1 Length=0.006542 units=km
New Line.ND30647239$30611176 phases=1 Bus1=30647239.2 Bus2=30611179.2 LineCode=2_CLP_1PH_12KV_1 Length=0.005861 units=km
New Line.J514A-1P$ND153219080 phases=3 Bus1=153219080.1.2.3 Bus2=89822896.1.2.3 LineCode=1/0_CLP_3PH_12KV_3 Length=0.039397 units=km
New Line.ND153219080$ND89823026 phases=3 Bus1=153219080.1.2.3 Bus2=89823026.1.2.3 LineCode=750_CLP_3PH_12KV_3 Length=0.271836 units=km
New Line.90132779$90132725 phases=1 Bus1=90132781.1 Bus2=90132727.1 LineCode=2_CLP_1PH_12KV_1 Length=0.076185 units=km
New Line.P5726638-1$204939314 phases=1 Bus1=204938958.1 Bus2=204939317.1 LineCode=1/0_JCN_1PH_12KV_1 Length=0.002952 units=km
New Line.206981814$ND204939618 phases=2 Bus1=206981817.2.3 Bus2=204939618.2.3 LineCode=1/0_JCN_2PH_12KV_2 Length=0.011135 units=km
New Line.P5734003-B$232255087 phases=3 Bus1=232254312.1.2.3 Bus2=232255090.1.2.3 LineCode=1/0_CLP_3PH_12KV_3 Length=0.001969 units=km
New Line.ND89823026$GS7455-3 phases=3 Bus1=89823026.1.2.3 Bus2=246764162.1.2.3 LineCode=1000_JCN_3PH_12KV_3 Length=0.145967 units=km
New Line.30588473$P5487597-2 phases=1 Bus1=30588498.1 Bus2=30588476.1 LineCode=2_CLP_1PH_12KV_1 Length=0.002806 units=km
New Line.J515A-1P$ND89823026 phases=2 Bus1=89823026.2.3 Bus2=89823232.2.3 LineCode=1/0_CLP_2PH_12KV_2 Length=0.018259 units=km
New Line.90133054$P5561949-1 phases=1 Bus1=90133057.2 Bus2=90132358.2 LineCode=2_CLP_1PH_12KV_1 Length=0.00378 units=km
New Line.ND204939618$206981841 phases=1 Bus1=204939618.2 Bus2=206981844.2 LineCode=1/0_JCN_1PH_12KV_1 Length=0.005972 units=km
New Line.ND204939618$206981868 phases=1 Bus1=204939618.3 Bus2=206981871.3 LineCode=1/0_JCN_1PH_12KV_1 Length=0.008296 units=km
New Line.206981900$ND204939618 phases=1 Bus1=204939618.3 Bus2=206981903.3 LineCode=1/0_JCN_1PH_12KV_1 Length=0.014374 units=km
New Line.30611166$30587767 phases=1 Bus1=30611168.3 Bus2=30587769.3 LineCode=2_CLP_1PH_12KV_1 Length=0.065538 units=km
New Line.30611146$30587849 phases=1 Bus1=30611148.2 Bus2=30587851.2 LineCode=2_CLP_1PH_12KV_1 Length=0.102637 units=km
New Line.30611156$30588023 phases=1 Bus1=30611158.3 Bus2=30588025.3 LineCode=2_CLP_1PH_12KV_1 Length=0.156708 units=km
New Line.30611176$30588125 phases=1 Bus1=30611178.2 Bus2=30588127.2 LineCode=2_CLP_1PH_12KV_1 Length=0.106873 units=km
New Line.14841071$ND90131398 phases=1 Bus1=14841069.2 Bus2=90131398.2 LineCode=2_CLP_1PH_12KV_1 Length=0.062919 units=km
New Line.90132725$P5561942-1 phases=1 Bus1=90132728.1 Bus2=90131950.1 LineCode=2_CLP_1PH_12KV_1 Length=0.006146 units=km
New Line.204939314$204939656 phases=1 Bus1=204939316.1 Bus2=204939658.1 LineCode=1/0_JCN_1PH_12KV_1 Length=0.128055 units=km
New Line.232254936$P5734006-A phases=3 Bus1=232254515.1.2.3 Bus2=232254939.1.2.3 LineCode=1/0_CLP_3PH_12KV_3 Length=0.002737 units=km
New Line.232255087$232255057 phases=3 Bus1=232255089.1.2.3 Bus2=232255059.1.2.3 LineCode=1/0_CLP_3PH_12KV_3 Length=0.09725 units=km
New Line.30552458$ND90131398 phases=1 Bus1=90131398.2 Bus2=30552460.2 LineCode=2_CLP_1PH_12KV_1 Length=0.140524 units=km
New Line.ND90131398$30552632 phases=1 Bus1=90131398.2 Bus2=30552634.2 LineCode=2_CLP_1PH_12KV_1 Length=0.052254 units=km
New Line.30588555$30588473 phases=1 Bus1=30588475.1 Bus2=30588557.1 LineCode=2_CLP_1PH_12KV_1 Length=0.127989 units=km
New Line.206981868$204939683 phases=1 Bus1=206981870.3 Bus2=204939685.3 LineCode=1/0_JCN_1PH_12KV_1 Length=0.103148 units=km
New Line.206981841$205802858 phases=1 Bus1=206981843.2 Bus2=205802860.2 LineCode=1/0_JCN_1PH_12KV_1 Length=0.080488 units=km
New Line.206981681$206981900 phases=1 Bus1=206981902.3 Bus2=206981683.3 LineCode=1/0_JCN_1PH_12KV_1 Length=0.156565 units=km
New Line.30588023$30587511 phases=1 Bus1=30588026.3 Bus2=30587513.3 LineCode=2_CLP_1PH_12KV_1 Length=0.098256 units=km
New Line.30587767$P5489406-2 phases=1 Bus1=30587770.3 Bus2=30587792.3 LineCode=2_CLP_1PH_12KV_1 Length=0.009571 units=km
New Line.P5487602-2$30587849 phases=1 Bus1=30587852.2 Bus2=30587884.2 LineCode=2_CLP_1PH_12KV_1 Length=0.004184 units=km
New Line.P5489410-1$30588023 phases=1 Bus1=30588026.3 Bus2=30588049.3 LineCode=2_CLP_1PH_12KV_1 Length=0.003348 units=km
New Line.P5489407-2$30588125 phases=1 Bus1=30588128.2 Bus2=30588150.2 LineCode=2_CLP_1PH_12KV_1 Length=0.003371 units=km
New Line.J514A-2P$ND30648350 phases=3 Bus1=89822920.1.2.3 Bus2=30648350.1.2.3 LineCode=1/0_CLP_3PH_12KV_3 Length=0.162566 units=km
New Line.P5561949-2$90133081 phases=1 Bus1=90132367.2 Bus2=90133084.2 LineCode=2_CLP_1PH_12KV_1 Length=0.003588 units=km
New Line.ND30648350$14841104 phases=3 Bus1=30648350.1.2.3 Bus2=14841102.1.2.3 LineCode=1/0_CLP_3PH_12KV_3 Length=0.041534 units=km
New Line.204939656$P5606612-2 phases=1 Bus1=204939659.1 Bus2=204939254.1 LineCode=1/0_JCN_1PH_12KV_1 Length=0.004194 units=km
New Line.232255057$J004-3P phases=3 Bus1=232255060.1.2.3 Bus2=232254391.1.2.3 LineCode=1/0_CLP_3PH_12KV_3 Length=0.001841 units=km
New Line.232255032$232254936 phases=3 Bus1=232254938.1.2.3 Bus2=232255034.1.2.3 LineCode=1/0_CLP_3PH_12KV_3 Length=0.107924 units=km
New Line.246765241$GS7455-2 phases=3 Bus1=246764153.1.2.3 Bus2=246765243.1.2.3 LineCode=1/0_JCN_3PH_12KV_3 Length=0.081036 units=km
New Line.P5514811-2$30552458 phases=1 Bus1=30552461.2 Bus2=30552493.2 LineCode=2_CLP_1PH_12KV_1 Length=0.002381 units=km
New Line.30552632$P5514810-2 phases=1 Bus1=30552635.2 Bus2=30552657.2 LineCode=2_CLP_1PH_12KV_1 Length=0.003763 units=km
New Line.P5487598-1$30588555 phases=1 Bus1=30588558.1 Bus2=30588581.1 LineCode=2_CLP_1PH_12KV_1 Length=0.001656 units=km
New Line.30610779$ND30648350 phases=2 Bus1=30648350.2.3 Bus2=30610781.2.3 LineCode=1/0_CLP_2PH_12KV_2 Length=0.031812 units=km
New Line.4694817E$GS7455-4 phases=3 Bus1=246764171.1.2.3 Bus2=89822726.1.2.3 LineCode=1000_JCN_3PH_12KV_3 Length=0.221171 units=km
New Line.P5561942-2$90132752 phases=1 Bus1=90131959.1 Bus2=90132755.1 LineCode=2_CLP_1PH_12KV_1 Length=0.004188 units=km
New Line.14841132$J514A-4P phases=3 Bus1=89822912.1.2.3 Bus2=14841130.1.2.3 LineCode=1/0_CLP_3PH_12KV_3 Length=0.148663 units=km
New Line.205802858$P5606615-1 phases=1 Bus1=205802861.2 Bus2=204939415.2 LineCode=1/0_JCN_1PH_12KV_1 Length=0.004179 units=km
New Line.204939683$P5606614-1 phases=1 Bus1=204939686.3 Bus2=204939483.3 LineCode=1/0_JCN_1PH_12KV_1 Length=0.003371 units=km
...

! Switches
New Line.30509393$GS5466-2 phases=3 Bus1=30509367.1.2.3 Bus2=30509368.1.2.3 switch=y r1=0.001 x1=0.001 r0=0.001 x0=0.001 Length=0.001 units=km
New Line.GS5466-2$30509401 phases=3 Bus1=30509368.1.2.3 Bus2=30509374.1.2.3 switch=y r1=0.001 x1=0.001 r0=0.001 x0=0.001 Length=0.001 units=km
New Line.30509401$30509409 phases=3 Bus1=30509374.1.2.3 Bus2=30509380.1.2.3 switch=y r1=0.001 x1=0.001 r0=0.001 x0=0.001 Length=0.001 units=km
New Line.136043488 phases=2 Bus1=136043490.2.3 Bus2=136043491.2.3 switch=y r1=0.001 x1=0.001 r0=0.001 x0=0.001 Length=0.001 units=km
New Line.PME2673-2$PME2673-4 phases=3 Bus1=30610332.1.2.3 Bus2=30610331.1.2.3 switch=y r1=0.001 x1=0.001 r0=0.001 x0=0.001 Length=0.001 units=km
New Line.30611222 phases=3 Bus1=30611224.1.2.3 Bus2=30611225.1.2.3 switch=y r1=0.001 x1=0.001 r0=0.001 x0=0.001 Length=0.001 units=km
New Line.148557744 phases=3 Bus1=148557746.1.2.3 Bus2=148557747.1.2.3 switch=y r1=0.001 x1=0.001 r0=0.001 x0=0.001 Length=0.001 units=km
New Line.30611212 phases=3 Bus1=30611215.1.2.3 Bus2=30611214.1.2.3 switch=y r1=0.001 x1=0.001 r0=0.001 x0=0.001 Length=0.001 units=km
New Line.172112151 phases=3 Bus1=172112153.1.2.3 Bus2=172112154.1.2.3 switch=y r1=0.001 x1=0.001 r0=0.001 x0=0.001 Length=0.001 units=km
New Line.PME7926-2$PME7926-4 phases=3 Bus1=206965314.1.2.3 Bus2=206965313.1.2.3 switch=y r1=0.001 x1=0.001 r0=0.001 x0=0.001 Length=0.001 units=km
New Line.193673697 phases=3 Bus1=193673699.1.2.3 Bus2=193673700.1.2.3 switch=y r1=0.001 x1=0.001 r0=0.001 x0=0.001 Length=0.001 units=km
New Line.30611202 phases=3 Bus1=30611204.1.2.3 Bus2=30611205.1.2.3 switch=y r1=0.001 x1=0.001 r0=0.001 x0=0.001 Length=0.001 units=km
New Line.98908723$GS6042-2 phases=3 Bus1=98908697.1.2.3 Bus2=98908698.1.2.3 switch=y r1=0.001 x1=0.001 r0=0.001 x0=0.001 Length=0.001 units=km
New Line.PME7050-2$PME7050-1 phases=3 Bus1=148557619.1.2.3 Bus2=148557618.1.2.3 switch=y r1=0.001 x1=0.001 r0=0.001 x0=0.001 Length=0.001 units=km
New Line.GS6042-2$GS6042-3 phases=3 Bus1=98908698.1.2.3 Bus2=98908704.1.2.3 switch=y r1=0.001 x1=0.001 r0=0.001 x0=0.001 Length=0.001 units=km
New Line.206965655 phases=3 Bus1=206965657.1.2.3 Bus2=206965658.1.2.3 switch=y r1=0.001 x1=0.001 r0=0.001 x0=0.001 Length=0.001 units=km
New Line.GS6042-3$98908739 phases=3 Bus1=98908704.1.2.3 Bus2=98908710.1.2.3 switch=y r1=0.001 x1=0.001 r0=0.001 x0=0.001 Length=0.001 units=km
New Line.201462777$PME7659-3 phases=3 Bus1=201462743.1.2.3 Bus2=201462744.1.2.3 switch=y r1=0.001 x1=0.001 r0=0.001 x0=0.001 Length=0.001 units=km
New Line.GS9391-1$GS9391-2 phases=3 Bus1=232253948.1.2.3 Bus2=232253947.1.2.3 switch=y r1=0.001 x1=0.001 r0=0.001 x0=0.001 Length=0.001 units=km
New Line.148557788 phases=3 Bus1=148557790.1.2.3 Bus2=148557791.1.2.3 switch=y r1=0.001 x1=0.001 r0=0.001 x0=0.001 Length=0.001 units=km
New Line.GS9391-3$GS9391-4 phases=3 Bus1=232253954.1.2.3 Bus2=232253960.1.2.3 switch=y r1=0.001 x1=0.001 r0=0.001 x0=0.001 Length=0.001 units=km
New Line.296946019 phases=3 Bus1=296946021.1.2.3 Bus2=296946022.1.2.3 switch=y r1=0.001 x1=0.001 r0=0.001 x0=0.001 Length=0.001 units=km
New Line.30590329$P5368085 phases=3 Bus1=30590322.1.2.3 Bus2=30590323.1.2.3 switch=y r1=0.001 x1=0.001 r0=0.001 x0=0.001 Length=0.001 units=km
New Line.98909647 phases=3 Bus1=98909649.1.2.3 Bus2=98909650.1.2.3 switch=y r1=0.001 x1=0.001 r0=0.001 x0=0.001 Length=0.001 units=km
New Line.98909672 phases=2 Bus1=98909674.2.3 Bus2=98909675.2.3 switch=y r1=0.001 x1=0.001 r0=0.001 x0=0.001 Length=0.001 units=km
New Line.GS9391-4$GS9391-5 phases=3 Bus1=232253960.1.2.3 Bus2=232253966.1.2.3 switch=y r1=0.001 x1=0.001 r0=0.001 x0=0.001 Length=0.001 units=km
New Line.75205237 phases=3 Bus1=75205240.1.2.3 Bus2=75205239.1.2.3 switch=y r1=0.001 x1=0.001 r0=0.001 x0=0.001 Length=0.001 units=km
New Line.98909472 phases=3 Bus1=98909474.1.2.3 Bus2=98909475.1.2.3 switch=y r1=0.001 x1=0.001 r0=0.001 x0=0.001 Length=0.001 units=km
New Line.98909522 phases=3 Bus1=98909524.1.2.3 Bus2=98909525.1.2.3 switch=y r1=0.001 x1=0.001 r0=0.001 x0=0.001 Length=0.001 units=km
New Line.98909622 phases=3 Bus1=98909624.1.2.3 Bus2=98909625.1.2.3 switch=y r1=0.001 x1=0.001 r0=0.001 x0=0.001 Length=0.001 units=km
New Line.108011992 phases=3 Bus1=108011994.1.2.3 Bus2=108011995.1.2.3 switch=y r1=0.001 x1=0.001 r0=0.001 x0=0.001 Length=0.001 units=km
New Line.148557704$P5542297 phases=3 Bus1=148557697.1.2.3 Bus2=148557698.1.2.3 switch=y r1=0.001 x1=0.001 r0=0.001 x0=0.001 Length=0.001 units=km
New Line.GS9391-5$GS9391-6 phases=3 Bus1=232253966.1.2.3 Bus2=232253972.1.2.3 switch=y r1=0.001 x1=0.001 r0=0.001 x0=0.001 Length=0.001 units=km
New Line.232255164 phases=3 Bus1=232255166.1.2.3 Bus2=232255167.1.2.3 switch=y r1=0.001 x1=0.001 r0=0.001 x0=0.001 Length=0.001 units=km
New Line.98909597 phases=3 Bus1=98909599.1.2.3 Bus2=98909600.1.2.3 switch=y r1=0.001 x1=0.001 r0=0.001 x0=0.001 Length=0.001 units=km
New Line.PME2870-2$PME2870-1 phases=3 Bus1=148557837.1.2.3 Bus2=148557836.1.2.3 switch=y r1=0.001 x1=0.001 r0=0.001 x0=0.001 Length=0.001 units=km
New Line.201463042 phases=1 Bus1=201463044.1 Bus2=201463045.1 switch=y r1=0.001 x1=0.001 r0=0.001 x0=0.001 Length=0.001 units=km
New Line.206982120 phases=3 Bus1=206982122.1.2.3 Bus2=206982123.1.2.3 switch=y r1=0.001 x1=0.001 r0=0.001 x0=0.001 Length=0.001 units=km
New Line.232254793 phases=2 Bus1=232254795.2.3 Bus2=232254796.2.3 switch=y r1=0.001 x1=0.001 r0=0.001 x0=0.001 Length=0.001 units=km
New Line.94213988 phases=3 Bus1=94213990.1.2.3 Bus2=94213991.1.2.3 switch=y r1=0.001 x1=0.001 r0=0.001 x0=0.001 Length=0.001 units=km
New Line.135420490 phases=3 Bus1=135420492.1.2.3 Bus2=135420493.1.2.3 switch=y r1=0.001 x1=0.001 r0=0.001 x0=0.001 Length=0.001 units=km
New Line.232254859 phases=3 Bus1=232254861.1.2.3 Bus2=232254862.1.2.3 switch=y r1=0.001 x1=0.001 r0=0.001 x0=0.001 Length=0.001 units=km
New Line.PME3042-2$30588903 phases=3 Bus1=30588870.1.2.3 Bus2=30588869.1.2.3 switch=y r1=0.001 x1=0.001 r0=0.001 x0=0.001 Length=0.001 units=km
New Line.75205264 phases=3 Bus1=75205266.1.2.3 Bus2=75205267.1.2.3 switch=y r1=0.001 x1=0.001 r0=0.001 x0=0.001 Length=0.001 units=km
New Line.108012019 phases=3 Bus1=108012022.1.2.3 Bus2=108012021.1.2.3 switch=y r1=0.001 x1=0.001 r0=0.001 x0=0.001 Length=0.001 units=km
New Line.206982093 phases=2 Bus1=206982096.2.3 Bus2=206982095.2.3 switch=y r1=0.001 x1=0.001 r0=0.001 x0=0.001 Length=0.001 units=km
New Line.296945992 phases=3 Bus1=296945995.1.2.3 Bus2=296945994.1.2.3 switch=y r1=0.001 x1=0.001 r0=0.001 x0=0.001 Length=0.001 units=km
New Line.94213963 phases=2 Bus1=94213966.2.3 Bus2=94213965.2.3 switch=y r1=0.001 x1=0.001 r0=0.001 x0=0.001 Length=0.001 units=km
New Line.94214013 phases=3 Bus1=94214016.1.2.3 Bus2=94214015.1.2.3 switch=y r1=0.001 x1=0.001 r0=0.001 x0=0.001 Length=0.001 units=km
New Line.98909247 phases=3 Bus1=98909250.1.2.3 Bus2=98909249.1.2.3 switch=y r1=0.001 x1=0.001 r0=0.001 x0=0.001 Length=0.001 units=km
New Line.98909547 phases=3 Bus1=98909550.1.2.3 Bus2=98909549.1.2.3 switch=y r1=0.001 x1=0.001 r0=0.001 x0=0.001 Length=0.001 units=km
New Line.108012052 phases=3 Bus1=108012054.1.2.3 Bus2=108012055.1.2.3 switch=y r1=0.001 x1=0.001 r0=0.001 x0=0.001 Length=0.001 units=km
New Line.206981975 phases=1 Bus1=206981978.1 Bus2=206981977.1 switch=y r1=0.001 x1=0.001 r0=0.001 x0=0.001 Length=0.001 units=km
New Line.206982240 phases=1 Bus1=206982243.1 Bus2=206982242.1 switch=y r1=0.001 x1=0.001 r0=0.001 x0=0.001 Length=0.001 units=km
New Line.232255139 phases=3 Bus1=232255142.1.2.3 Bus2=232255141.1.2.3 switch=y r1=0.001 x1=0.001 r0=0.001 x0=0.001 Length=0.001 units=km
New Line.206981757 phases=2 Bus1=206981759.2.3 Bus2=206981760.2.3 switch=y r1=0.001 x1=0.001 r0=0.001 x0=0.001 Length=0.001 units=km
New Line.30589669$P5445575 phases=3 Bus1=30589662.1.2.3 Bus2=30589663.1.2.3 switch=y r1=0.001 x1=0.001 r0=0.001 x0=0.001 Length=0.001 units=km
New Line.89822777$89822785 phases=3 Bus1=89822764.1.2.3 Bus2=89822758.1.2.3 switch=y r1=0.001 x1=0.001 r0=0.001 x0=0.001 Length=0.001 units=km
New Line.PME5769-4$PME5769-1 phases=3 Bus1=90131783.1.2.3 Bus2=90131784.1.2.3 switch=y r1=0.001 x1=0.001 r0=0.001 x0=0.001 Length=0.001 units=km
New Line.PME5769-4$PME5769-3 phases=3 Bus1=90131783.1.2.3 Bus2=90131790.1.2.3 switch=y r1=0.001 x1=0.001 r0=0.001 x0=0.001 Length=0.001 units=km
New Line.94213828 phases=2 Bus1=94213830.2.3 Bus2=94213831.2.3 switch=y r1=0.001 x1=0.001 r0=0.001 x0=0.001 Length=0.001 units=km
New Line.94213853 phases=3 Bus1=94213855.1.2.3 Bus2=94213856.1.2.3 switch=y r1=0.001 x1=0.001 r0=0.001 x0=0.001 Length=0.001 units=km
New Line.98909497 phases=3 Bus1=98909499.1.2.3 Bus2=98909500.1.2.3 switch=y r1=0.001 x1=0.001 r0=0.001 x0=0.001 Length=0.001 units=km
New Line.98909572 phases=3 Bus1=98909574.1.2.3 Bus2=98909575.1.2.3 switch=y r1=0.001 x1=0.001 r0=0.001 x0=0.001 Length=0.001 units=km
New Line.204939150 phases=1 Bus1=204939152.1 Bus2=204939153.1 switch=y r1=0.001 x1=0.001 r0=0.001 x0=0.001 Length=0.001 units=km
New Line.204939177 phases=1 Bus1=204939179.1 Bus2=204939180.1 switch=y r1=0.001 x1=0.001 r0=0.001 x0=0.001 Length=0.001 units=km
New Line.232254886 phases=3 Bus1=232254889.1.2.3 Bus2=232254888.1.2.3 switch=y r1=0.001 x1=0.001 r0=0.001 x0=0.001 Length=0.001 units=km
New Line.232255114 phases=3 Bus1=232255116.1.2.3 Bus2=232255117.1.2.3 switch=y r1=0.001 x1=0.001 r0=0.001 x0=0.001 Length=0.001 units=km
New Line.30588463 phases=1 Bus1=30588465.1 Bus2=30588466.1 switch=y r1=0.001 x1=0.001 r0=0.001 x0=0.001 Length=0.001 units=km
New Line.30607690 phases=1 Bus1=30607692.3 Bus2=30607693.3 switch=y r1=0.001 x1=0.001 r0=0.001 x0=0.001 Length=0.001 units=km
New Line.30610855 phases=1 Bus1=30610857.2 Bus2=30610858.2 switch=y r1=0.001 x1=0.001 r0=0.001 x0=0.001 Length=0.001 units=km
New Line.89822769$89822777 phases=3 Bus1=89822758.1.2.3 Bus2=89822757.1.2.3 switch=y r1=0.001 x1=0.001 r0=0.001 x0=0.001 Length=0.001 units=km
New Line.206981784 phases=2 Bus1=206981787.2.3 Bus2=206981786.2.3 switch=y r1=0.001 x1=0.001 r0=0.001 x0=0.001 Length=0.001 units=km
New Line.30588381 phases=1 Bus1=30588383.1 Bus2=30588384.1 switch=y r1=0.001 x1=0.001 r0=0.001 x0=0.001 Length=0.001 units=km
New Line.30611186 phases=2 Bus1=30611188.2.3 Bus2=30611189.2.3 switch=y r1=0.001 x1=0.001 r0=0.001 x0=0.001 Length=0.001 units=km
New Line.90132806 phases=1 Bus1=90132809.2 Bus2=90132808.2 switch=y r1=0.001 x1=0.001 r0=0.001 x0=0.001 Length=0.001 units=km
New Line.232254911 phases=3 Bus1=232254913.1.2.3 Bus2=232254914.1.2.3 switch=y r1=0.001 x1=0.001 r0=0.001 x0=0.001 Length=0.001 units=km
New Line.90132779 phases=1 Bus1=90132782.1 Bus2=90132781.1 switch=y r1=0.001 x1=0.001 r0=0.001 x0=0.001 Length=0.001 units=km
New Line.90132833 phases=1 Bus1=90132836.3 Bus2=90132835.3 switch=y r1=0.001 x1=0.001 r0=0.001 x0=0.001 Length=0.001 units=km
New Line.206981814 phases=2 Bus1=206981816.2.3 Bus2=206981817.2.3 switch=y r1=0.001 x1=0.001 r0=0.001 x0=0.001 Length=0.001 units=km
New Line.90133054 phases=1 Bus1=90133056.2 Bus2=90133057.2 switch=y r1=0.001 x1=0.001 r0=0.001 x0=0.001 Length=0.001 units=km
New Line.14841071 phases=1 Bus1=14841074.2 Bus2=14841069.2 switch=y r1=0.001 x1=0.001 r0=0.001 x0=0.001 Length=0.001 units=km
New Line.30611146 phases=1 Bus1=30611149.2 Bus2=30611148.2 switch=y r1=0.001 x1=0.001 r0=0.001 x0=0.001 Length=0.001 units=km
New Line.30611156 phases=1 Bus1=30611159.3 Bus2=30611158.3 switch=y r1=0.001 x1=0.001 r0=0.001 x0=0.001 Length=0.001 units=km
New Line.30611166 phases=1 Bus1=30611169.3 Bus2=30611168.3 switch=y r1=0.001 x1=0.001 r0=0.001 x0=0.001 Length=0.001 units=km
New Line.30611176 phases=1 Bus1=30611179.2 Bus2=30611178.2 switch=y r1=0.001 x1=0.001 r0=0.001 x0=0.001 Length=0.001 units=km
New Line.90132725 phases=1 Bus1=90132727.1 Bus2=90132728.1 switch=y r1=0.001 x1=0.001 r0=0.001 x0=0.001 Length=0.001 units=km
New Line.204939314 phases=1 Bus1=204939317.1 Bus2=204939316.1 switch=y r1=0.001 x1=0.001 r0=0.001 x0=0.001 Length=0.001 units=km
New Line.232255087 phases=3 Bus1=232255090.1.2.3 Bus2=232255089.1.2.3 switch=y r1=0.001 x1=0.001 r0=0.001 x0=0.001 Length=0.001 units=km
New Line.30588473 phases=1 Bus1=30588476.1 Bus2=30588475.1 switch=y r1=0.001 x1=0.001 r0=0.001 x0=0.001 Length=0.001 units=km
New Line.89822893$89822917 phases=3 Bus1=89822897.1.2.3 Bus2=89822921.1.2.3 switch=y r1=0.001 x1=0.001 r0=0.001 x0=0.001 Length=0.001 units=km
New Line.206981841 phases=1 Bus1=206981844.2 Bus2=206981843.2 switch=y r1=0.001 x1=0.001 r0=0.001 x0=0.001 Length=0.001 units=km
New Line.206981868 phases=1 Bus1=206981871.3 Bus2=206981870.3 switch=y r1=0.001 x1=0.001 r0=0.001 x0=0.001 Length=0.001 units=km
New Line.206981900 phases=1 Bus1=206981903.3 Bus2=206981902.3 switch=y r1=0.001 x1=0.001 r0=0.001 x0=0.001 Length=0.001 units=km
New Line.GS7455-2$246764159 phases=3 Bus1=246764130.1.2.3 Bus2=246764124.1.2.3 switch=y r1=0.001 x1=0.001 r0=0.001 x0=0.001 Length=0.001 units=km
New Line.246764159$246764168 phases=3 Bus1=246764130.1.2.3 Bus2=246764136.1.2.3 switch=y r1=0.001 x1=0.001 r0=0.001 x0=0.001 Length=0.001 units=km
New Line.30587767 phases=1 Bus1=30587769.3 Bus2=30587770.3 switch=y r1=0.001 x1=0.001 r0=0.001 x0=0.001 Length=0.001 units=km
New Line.30587849 phases=1 Bus1=30587851.2 Bus2=30587852.2 switch=y r1=0.001 x1=0.001 r0=0.001 x0=0.001 Length=0.001 units=km
New Line.30588023 phases=1 Bus1=30588025.3 Bus2=30588026.3 switch=y r1=0.001 x1=0.001 r0=0.001 x0=0.001 Length=0.001 units=km
New Line.30588125 phases=1 Bus1=30588127.2 Bus2=30588128.2 switch=y r1=0.001 x1=0.001 r0=0.001 x0=0.001 Length=0.001 units=km
New Line.89822917$89822901 phases=3 Bus1=89822921.1.2.3 Bus2=89822905.1.2.3 switch=y r1=0.001 x1=0.001 r0=0.001 x0=0.001 Length=0.001 units=km
New Line.89823229$89823245 phases=3 Bus1=89823233.1.2.3 Bus2=89823249.1.2.3 switch=y r1=0.001 x1=0.001 r0=0.001 x0=0.001 Length=0.001 units=km
New Line.204939656 phases=1 Bus1=204939658.1 Bus2=204939659.1 switch=y r1=0.001 x1=0.001 r0=0.001 x0=0.001 Length=0.001 units=km
New Line.232254936 phases=3 Bus1=232254939.1.2.3 Bus2=232254938.1.2.3 switch=y r1=0.001 x1=0.001 r0=0.001 x0=0.001 Length=0.001 units=km
New Line.232255057 phases=3 Bus1=232255059.1.2.3 Bus2=232255060.1.2.3 switch=y r1=0.001 x1=0.001 r0=0.001 x0=0.001 Length=0.001 units=km
New Line.246764141$GS7455-2 phases=3 Bus1=246764124.1.2.3 Bus2=246764123.1.2.3 switch=y r1=0.001 x1=0.001 r0=0.001 x0=0.001 Length=0.001 units=km
New Line.30552458 phases=1 Bus1=30552460.2 Bus2=30552461.2 switch=y r1=0.001 x1=0.001 r0=0.001 x0=0.001 Length=0.001 units=km
New Line.30552632 phases=1 Bus1=30552634.2 Bus2=30552635.2 switch=y r1=0.001 x1=0.001 r0=0.001 x0=0.001 Length=0.001 units=km
New Line.30588555 phases=1 Bus1=30588557.1 Bus2=30588558.1 switch=y r1=0.001 x1=0.001 r0=0.001 x0=0.001 Length=0.001 units=km
New Line.89822901$89822909 phases=3 Bus1=89822905.1.2.3 Bus2=89822913.1.2.3 switch=y r1=0.001 x1=0.001 r0=0.001 x0=0.001 Length=0.001 units=km
New Line.89823245$89823237 phases=3 Bus1=89823249.1.2.3 Bus2=89823241.1.2.3 switch=y r1=0.001 x1=0.001 r0=0.001 x0=0.001 Length=0.001 units=km
New Line.204939683 phases=1 Bus1=204939685.3 Bus2=204939686.3 switch=y r1=0.001 x1=0.001 r0=0.001 x0=0.001 Length=0.001 units=km
New Line.205802858 phases=1 Bus1=205802860.2 Bus2=205802861.2 switch=y r1=0.001 x1=0.001 r0=0.001 x0=0.001 Length=0.001 units=km
New Line.206981681 phases=1 Bus1=206981683.3 Bus2=206981684.3 switch=y r1=0.001 x1=0.001 r0=0.001 x0=0.001 Length=0.001 units=km
New Line.30587511 phases=1 Bus1=30587513.3 Bus2=30587514.3 switch=y r1=0.001 x1=0.001 r0=0.001 x0=0.001 Length=0.001 units=km
New Line.90133081 phases=1 Bus1=90133084.2 Bus2=90133083.2 switch=y r1=0.001 x1=0.001 r0=0.001 x0=0.001 Length=0.001 units=km
New Line.14841104 phases=3 Bus1=14841102.1.2.3 Bus2=14841107.1.2.3 switch=y r1=0.001 x1=0.001 r0=0.001 x0=0.001 Length=0.001 units=km
New Line.232255032 phases=3 Bus1=232255034.1.2.3 Bus2=232255035.1.2.3 switch=y r1=0.001 x1=0.001 r0=0.001 x0=0.001 Length=0.001 units=km
New Line.246765241 phases=3 Bus1=246765243.1.2.3 Bus2=246765244.1.2.3 switch=y r1=0.001 x1=0.001 r0=0.001 x0=0.001 Length=0.001 units=km
New Line.30610779 phases=2 Bus1=30610781.2.3 Bus2=30610782.2.3 switch=y r1=0.001 x1=0.001 r0=0.001 x0=0.001 Length=0.001 units=km
New Line.90132752 phases=1 Bus1=90132755.1 Bus2=90132754.1 switch=y r1=0.001 x1=0.001 r0=0.001 x0=0.001 Length=0.001 units=km
New Line.14841132 phases=3 Bus1=14841130.1.2.3 Bus2=14841135.1.2.3 switch=y r1=0.001 x1=0.001 r0=0.001 x0=0.001 Length=0.001 units=km
New Line.232254396$232254388 phases=3 Bus1=232254392.1.2.3 Bus2=232254400.1.2.3 switch=y r1=0.001 x1=0.001 r0=0.001 x0=0.001 Length=0.001 units=km
New Line.90133108 phases=1 Bus1=90133110.2 Bus2=90133111.2 switch=y r1=0.001 x1=0.001 r0=0.001 x0=0.001 Length=0.001 units=km
New Line.232254380$232254396 phases=3 Bus1=232254400.1.2.3 Bus2=232254384.1.2.3 switch=y r1=0.001 x1=0.001 r0=0.001 x0=0.001 Length=0.001 units=km
New Line.246764851$246764843 phases=3 Bus1=246764825.1.2.3 Bus2=246764826.1.2.3 switch=y r1=0.001 x1=0.001 r0=0.001 x0=0.001 Length=0.001 units=km
New Line.30587859 phases=1 Bus1=30587862.2 Bus2=30587861.2 switch=y r1=0.001 x1=0.001 r0=0.001 x0=0.001 Length=0.001 units=km
New Line.30588033 phases=1 Bus1=30588036.3 Bus2=30588035.3 switch=y r1=0.001 x1=0.001 r0=0.001 x0=0.001 Length=0.001 units=km
New Line.30588115 phases=1 Bus1=30588118.2 Bus2=30588117.2 switch=y r1=0.001 x1=0.001 r0=0.001 x0=0.001 Length=0.001 units=km
New Line.90132865 phases=1 Bus1=90132867.1 Bus2=90132868.1 switch=y r1=0.001 x1=0.001 r0=0.001 x0=0.001 Length=0.001 units=km
New Line.PME7507-4$PME7507-1 phases=3 Bus1=246764305.1.2.3 Bus2=246764306.1.2.3 switch=y r1=0.001 x1=0.001 r0=0.001 x0=0.001 Length=0.001 units=km
New Line.PME7507-4$PME7507-3 phases=3 Bus1=246764305.1.2.3 Bus2=246764312.1.2.3 switch=y r1=0.001 x1=0.001 r0=0.001 x0=0.001 Length=0.001 units=km
New Line.246764843$GS7454-3 phases=3 Bus1=246764826.1.2.3 Bus2=246764832.1.2.3 switch=y r1=0.001 x1=0.001 r0=0.001 x0=0.001 Length=0.001 units=km
New Line.30552468 phases=1 Bus1=30552471.2 Bus2=30552470.2 switch=y r1=0.001 x1=0.001 r0=0.001 x0=0.001 Length=0.001 units=km
New Line.30588565 phases=1 Bus1=30588568.1 Bus2=30588567.1 switch=y r1=0.001 x1=0.001 r0=0.001 x0=0.001 Length=0.001 units=km
New Line.204939737 phases=1 Bus1=205802834.2 Bus2=205802833.2 switch=y r1=0.001 x1=0.001 r0=0.001 x0=0.001 Length=0.001 units=km
New Line.206981710 phases=1 Bus1=206981713.3 Bus2=206981712.3 switch=y r1=0.001 x1=0.001 r0=0.001 x0=0.001 Length=0.001 units=km
New Line.GS7454-3$246764867 phases=3 Bus1=246764832.1.2.3 Bus2=246764838.1.2.3 switch=y r1=0.001 x1=0.001 r0=0.001 x0=0.001 Length=0.001 units=km
New Line.30587521 phases=1 Bus1=30587524.3 Bus2=30587523.3 switch=y r1=0.001 x1=0.001 r0=0.001 x0=0.001 Length=0.001 units=km
New Line.30587941 phases=1 Bus1=30587943.3 Bus2=30587944.3 switch=y r1=0.001 x1=0.001 r0=0.001 x0=0.001 Length=0.001 units=km
New Line.30588217 phases=1 Bus1=30588219.2 Bus2=30588220.2 switch=y r1=0.001 x1=0.001 r0=0.001 x0=0.001 Length=0.001 units=km
New Line.30588729 phases=1 Bus1=30588731.2 Bus2=30588732.2 switch=y r1=0.001 x1=0.001 r0=0.001 x0=0.001 Length=0.001 units=km
New Line.30610789 phases=1 Bus1=30610792.1 Bus2=30610791.1 switch=y r1=0.001 x1=0.001 r0=0.001 x0=0.001 Length=0.001 units=km
New Line.90133189 phases=1 Bus1=90133191.2 Bus2=90133192.2 switch=y r1=0.001 x1=0.001 r0=0.001 x0=0.001 Length=0.001 units=km
New Line.232255007 phases=3 Bus1=232255010.1.2.3 Bus2=232255009.1.2.3 switch=y r1=0.001 x1=0.001 r0=0.001 x0=0.001 Length=0.001 units=km
New Line.246765845 phases=1 Bus1=246765848.2 Bus2=246765847.2 switch=y r1=0.001 x1=0.001 r0=0.001 x0=0.001 Length=0.001 units=km
New Line.30588647 phases=1 Bus1=30588649.1 Bus2=30588650.1 switch=y r1=0.001 x1=0.001 r0=0.001 x0=0.001 Length=0.001 units=km
New Line.30610959 phases=1 Bus1=30610962.2 Bus2=30610961.2 switch=y r1=0.001 x1=0.001 r0=0.001 x0=0.001 Length=0.001 units=km
New Line.89823105 phases=1 Bus1=89823107.2 Bus2=89823108.2 switch=y r1=0.001 x1=0.001 r0=0.001 x0=0.001 Length=0.001 units=km
New Line.108524042 phases=1 Bus1=108524044.3 Bus2=108524045.3 switch=y r1=0.001 x1=0.001 r0=0.001 x0=0.001 Length=0.001 units=km
New Line.204939710 phases=1 Bus1=204939712.2 Bus2=204939713.2 switch=y r1=0.001 x1=0.001 r0=0.001 x0=0.001 Length=0.001 units=km
New Line.206981615 phases=1 Bus1=206981617.3 Bus2=206981618.3 switch=y r1=0.001 x1=0.001 r0=0.001 x0=0.001 Length=0.001 units=km
New Line.246765581 phases=3 Bus1=246765583.1.2.3 Bus2=246765584.1.2.3 switch=y r1=0.001 x1=0.001 r0=0.001 x0=0.001 Length=0.001 units=km
New Line.246765818 phases=1 Bus1=246765821.1 Bus2=246765820.1 switch=y r1=0.001 x1=0.001 r0=0.001 x0=0.001 Length=0.001 units=km
New Line.246765870 phases=1 Bus1=246765873.3 Bus2=246765872.3 switch=y r1=0.001 x1=0.001 r0=0.001 x0=0.001 Length=0.001 units=km
New Line.30513139 phases=1 Bus1=30513141.1 Bus2=30513142.1 switch=y r1=0.001 x1=0.001 r0=0.001 x0=0.001 Length=0.001 units=km
New Line.232254979 phases=3 Bus1=232254981.1.2.3 Bus2=232254982.1.2.3 switch=y r1=0.001 x1=0.001 r0=0.001 x0=0.001 Length=0.001 units=km
New Line.246765295 phases=1 Bus1=246765297.2 Bus2=246765298.2 switch=y r1=0.001 x1=0.001 r0=0.001 x0=0.001 Length=0.001 units=km
New Line.30553746 phases=1 Bus1=30553748.2 Bus2=30553749.2 switch=y r1=0.001 x1=0.001 r0=0.001 x0=0.001 Length=0.001 units=km
New Line.90132892 phases=1 Bus1=90132895.1 Bus2=90132894.1 switch=y r1=0.001 x1=0.001 r0=0.001 x0=0.001 Length=0.001 units=km
New Line.90133135 phases=1 Bus1=90133138.2 Bus2=90133137.2 switch=y r1=0.001 x1=0.001 r0=0.001 x0=0.001 Length=0.001 units=km
New Line.246765268 phases=1 Bus1=246765270.3 Bus2=246765271.3 switch=y r1=0.001 x1=0.001 r0=0.001 x0=0.001 Length=0.001 units=km
New Line.246765320 phases=1 Bus1=246765322.1 Bus2=246765323.1 switch=y r1=0.001 x1=0.001 r0=0.001 x0=0.001 Length=0.001 units=km
New Line.GS6051-3$94932086 phases=3 Bus1=94932057.1.2.3 Bus2=94932051.1.2.3 switch=y r1=0.001 x1=0.001 r0=0.001 x0=0.001 Length=0.001 units=km
New Line.241267514 phases=1 Bus1=241267517.2 Bus2=241267516.2 switch=y r1=0.001 x1=0.001 r0=0.001 x0=0.001 Length=0.001 units=km
New Line.246765011$246765027 phases=3 Bus1=246765015.1.2.3 Bus2=246765031.1.2.3 switch=y r1=0.001 x1=0.001 r0=0.001 x0=0.001 Length=0.001 units=km
New Line.90132919 phases=1 Bus1=90132921.1 Bus2=90132922.1 switch=y r1=0.001 x1=0.001 r0=0.001 x0=0.001 Length=0.001 units=km
New Line.90133162 phases=1 Bus1=90133164.2 Bus2=90133165.2 switch=y r1=0.001 x1=0.001 r0=0.001 x0=0.001 Length=0.001 units=km
New Line.GS6051-2$GS6051-3 phases=3 Bus1=94932051.1.2.3 Bus2=94932045.1.2.3 switch=y r1=0.001 x1=0.001 r0=0.001 x0=0.001 Length=0.001 units=km
New Line.239834872 phases=1 Bus1=239834875.2 Bus2=239834874.2 switch=y r1=0.001 x1=0.001 r0=0.001 x0=0.001 Length=0.001 units=km
New Line.239834928 phases=1 Bus1=239834931.2 Bus2=239834930.2 switch=y r1=0.001 x1=0.001 r0=0.001 x0=0.001 Length=0.001 units=km
New Line.246765027$246765019 phases=3 Bus1=246765031.1.2.3 Bus2=246765023.1.2.3 switch=y r1=0.001 x1=0.001 r0=0.001 x0=0.001 Length=0.001 units=km
New Line.30587163 phases=1 Bus1=30587165.2 Bus2=30587166.2 switch=y r1=0.001 x1=0.001 r0=0.001 x0=0.001 Length=0.001 units=km
New Line.30588739 phases=1 Bus1=30588742.2 Bus2=30588741.2 switch=y r1=0.001 x1=0.001 r0=0.001 x0=0.001 Length=0.001 units=km
New Line.94932070$GS6051-2 phases=3 Bus1=94932045.1.2.3 Bus2=94932044.1.2.3 switch=y r1=0.001 x1=0.001 r0=0.001 x0=0.001 Length=0.001 units=km
New Line.206981588 phases=1 Bus1=206981591.3 Bus2=206981590.3 switch=y r1=0.001 x1=0.001 r0=0.001 x0=0.001 Length=0.001 units=km
New Line.239833944 phases=1 Bus1=239833947.3 Bus2=239833946.3 switch=y r1=0.001 x1=0.001 r0=0.001 x0=0.001 Length=0.001 units=km
New Line.239834816 phases=1 Bus1=239834819.1 Bus2=239834818.1 switch=y r1=0.001 x1=0.001 r0=0.001 x0=0.001 Length=0.001 units=km
New Line.239835030 phases=1 Bus1=239835033.1 Bus2=239835032.1 switch=y r1=0.001 x1=0.001 r0=0.001 x0=0.001 Length=0.001 units=km
New Line.246765553 phases=1 Bus1=246765556.3 Bus2=246765555.3 switch=y r1=0.001 x1=0.001 r0=0.001 x0=0.001 Length=0.001 units=km
New Line.30587429 phases=1 Bus1=30587432.3 Bus2=30587431.3 switch=y r1=0.001 x1=0.001 r0=0.001 x0=0.001 Length=0.001 units=km
New Line.30588299 phases=1 Bus1=30588301.2 Bus2=30588302.2 switch=y r1=0.001 x1=0.001 r0=0.001 x0=0.001 Length=0.001 units=km
New Line.95573035 phases=3 Bus1=95573037.1.2.3 Bus2=95573038.1.2.3 switch=y r1=0.001 x1=0.001 r0=0.001 x0=0.001 Length=0.001 units=km
New Line.239835112 phases=1 Bus1=239835114.2 Bus2=239835115.2 switch=y r1=0.001 x1=0.001 r0=0.001 x0=0.001 Length=0.001 units=km
New Line.239835599 phases=1 Bus1=239835601.2 Bus2=239835602.2 switch=y r1=0.001 x1=0.001 r0=0.001 x0=0.001 Length=0.001 units=km
New Line.246765608 phases=2 Bus1=246765611.2.3 Bus2=246765610.2.3 switch=y r1=0.001 x1=0.001 r0=0.001 x0=0.001 Length=0.001 units=km
New Line.30513129 phases=1 Bus1=30513132.1 Bus2=30513131.1 switch=y r1=0.001 x1=0.001 r0=0.001 x0=0.001 Length=0.001 units=km
New Line.30553756 phases=1 Bus1=30553759.2 Bus2=30553758.2 switch=y r1=0.001 x1=0.001 r0=0.001 x0=0.001 Length=0.001 units=km
New Line.30610759 phases=1 Bus1=30610762.1 Bus2=30610761.1 switch=y r1=0.001 x1=0.001 r0=0.001 x0=0.001 Length=0.001 units=km
New Line.108524007 phases=1 Bus1=108524009.3 Bus2=108524010.3 switch=y r1=0.001 x1=0.001 r0=0.001 x0=0.001 Length=0.001 units=km
New Line.206981561 phases=1 Bus1=206981563.3 Bus2=206981564.3 switch=y r1=0.001 x1=0.001 r0=0.001 x0=0.001 Length=0.001 units=km
New Line.239835326 phases=1 Bus1=239835328.1 Bus2=239835329.1 switch=y r1=0.001 x1=0.001 r0=0.001 x0=0.001 Length=0.001 units=km
New Line.239835542 phases=1 Bus1=239835544.1 Bus2=239835545.1 switch=y r1=0.001 x1=0.001 r0=0.001 x0=0.001 Length=0.001 units=km
New Line.246765395 phases=1 Bus1=246765397.3 Bus2=246765398.3 switch=y r1=0.001 x1=0.001 r0=0.001 x0=0.001 Length=0.001 units=km
New Line.246765526 phases=1 Bus1=246765528.3 Bus2=246765529.3 switch=y r1=0.001 x1=0.001 r0=0.001 x0=0.001 Length=0.001 units=km
New Line.30587685 phases=1 Bus1=30587687.2 Bus2=30587688.2 switch=y r1=0.001 x1=0.001 r0=0.001 x0=0.001 Length=0.001 units=km
New Line.90131350 phases=1 Bus1=90131352.2 Bus2=90131353.2 switch=y r1=0.001 x1=0.001 r0=0.001 x0=0.001 Length=0.001 units=km
New Line.246765633 phases=2 Bus1=246765635.2.3 Bus2=246765636.2.3 switch=y r1=0.001 x1=0.001 r0=0.001 x0=0.001 Length=0.001 units=km
New Line.30512699 phases=1 Bus1=30512701.1 Bus2=30512702.1 switch=y r1=0.001 x1=0.001 r0=0.001 x0=0.001 Length=0.001 units=km
New Line.30513047 phases=1 Bus1=30513049.1 Bus2=30513050.1 switch=y r1=0.001 x1=0.001 r0=0.001 x0=0.001 Length=0.001 units=km
...

! Loads
New Load.5630500 Bus1=-999999206965518.1.0 phases=1 kV=0.159926 kW=0 kvar=0 model=1
New Load.5368085_0 Bus1=-99999930590323.1.0 phases=1 kV=0.159926 kW=0 kvar=0 model=1
New Load.5368085_1 Bus1=-99999930590323.2.0 phases=1 kV=0.159926 kW=0 kvar=0 model=1
New Load.5368085_2 Bus1=-99999930590323.3.0 phases=1 kV=0.159926 kW=0 kvar=0 model=1
New Load.2090842E_0 Bus1=-99999930610495.1.2 phases=1 kV=0.069282 kW=0 kvar=0 model=1
New Load.2090842E_1 Bus1=-99999930610495.2.3 phases=1 kV=0.069282 kW=0 kvar=0 model=1
New Load.2090842E_2 Bus1=-99999930610495.3.1 phases=1 kV=0.069282 kW=0 kvar=0 model=1
New Load.5526546 Bus1=-99999956720179.1.0 phases=1 kV=0.069282 kW=0 kvar=0 model=1
New Load.5526547 Bus1=-99999956720353.2.0 phases=1 kV=0.069282 kW=0 kvar=0 model=1
New Load.5571995 Bus1=-99999996154295.1.0 phases=1 kV=0.069282 kW=0 kvar=0 model=1
New Load.5520721 Bus1=-99999983251438.3.0 phases=1 kV=0.069282 kW=0 kvar=0 model=1
New Load.5561821 Bus1=-99999996153012.1.0 phases=1 kV=0.069282 kW=0 kvar=0 model=1
New Load.5561819 Bus1=-99999996153148.1.0 phases=1 kV=0.069282 kW=0 kvar=0 model=1
New Load.5543636_0 Bus1=-999999136043405.2.0 phases=1 kV=0.069282 kW=0 kvar=0 model=1
New Load.5543636_1 Bus1=-999999136043405.3.0 phases=1 kV=0.069282 kW=0 kvar=0 model=1
New Load.5494551 Bus1=-99999930587180.2.0 phases=1 kV=0.069282 kW=0 kvar=0 model=1
New Load.5561814 Bus1=-99999996153284.2.0 phases=1 kV=0.069282 kW=0 kvar=0 model=1
New Load.5719302 Bus1=-999999204938425.3.0 phases=1 kV=0.069282 kW=0 kvar=0 model=1
New Load.5571997 Bus1=-99999996154431.1.0 phases=1 kV=0.069282 kW=0 kvar=0 model=1
New Load.5732943 Bus1=-999999239834113.1.0 phases=1 kV=0.069282 kW=0 kvar=0 model=1
New Load.5748308 Bus1=-999999246764602.3.0 phases=1 kV=0.069282 kW=0 kvar=0 model=1
New Load.5732938 Bus1=-999999239834465.2.0 phases=1 kV=0.069282 kW=0 kvar=0 model=1
New Load.5732945 Bus1=-999999239834534.2.0 phases=1 kV=0.069282 kW=0 kvar=0 model=1
New Load.5561950 Bus1=-99999990132427.2.0 phases=1 kV=0.069282 kW=0 kvar=0 model=1
New Load.5561944 Bus1=-99999990132019.1.0 phases=1 kV=0.069282 kW=0 kvar=0 model=1
New Load.5532206 Bus1=-99999971334132.1.0 phases=1 kV=0.069282 kW=0 kvar=0 model=1
New Load.5489409 Bus1=-99999930588316.2.0 phases=1 kV=0.069282 kW=0 kvar=0 model=1
New Load.5542710_0 Bus1=-999999135420426.1.0 phases=1 kV=0.159926 kW=0 kvar=0 model=1
New Load.5542710_1 Bus1=-999999135420426.2.0 phases=1 kV=0.159926 kW=0 kvar=0 model=1
New Load.5542710_2 Bus1=-999999135420426.3.0 phases=1 kV=0.159926 kW=0 kvar=0 model=1
New Load.5537031_0 Bus1=-99999975205189.1.0 phases=1 kV=0.069282 kW=0 kvar=0 model=1
New Load.5537031_1 Bus1=-99999975205189.2.0 phases=1 kV=0.069282 kW=0 kvar=0 model=1
New Load.5537031_2 Bus1=-99999975205189.3.0 phases=1 kV=0.069282 kW=0 kvar=0 model=1
New Load.5734002_0 Bus1=-999999232254214.1.2 phases=1 kV=0.069282 kW=0 kvar=0 model=1
New Load.5734002_1 Bus1=-999999232254214.2.3 phases=1 kV=0.069282 kW=0 kvar=0 model=1
New Load.5734002_2 Bus1=-999999232254214.3.1 phases=1 kV=0.069282 kW=0 kvar=0 model=1
...